66

  V      1.985697    5.996766   -0.225995
  N      1.465808    5.248419    1.610420
  N      2.290065    7.760927    0.765131
  N      0.372438    3.176203    0.943853
  N      2.405861    6.962218    3.064312
  C      0.927127    3.992390    1.833918
  C      1.879640    5.765256    2.826772
  C      2.574669    7.878644    2.116466
  C      2.566406    8.977683    0.161527
  C      1.018977    3.674618    3.252763
  C      0.641667    2.543634    3.986040
  H      0.202166    1.663949    3.509623
  C      0.878204    2.562204    5.360574
  C      1.433320    3.711168    5.999464
  C      1.825580    4.828382    5.261626
  H      2.257216    5.700030    5.759513
  C      1.617996    4.790990    3.878014
  C      3.075879    9.217393    2.388993
  C      3.496999    9.844565    3.567916
  H      3.494779    9.301739    4.519615
  C      3.921732   11.173875    3.498436
  C      3.916369   11.875861    2.249636
  C      3.486498   11.242629    1.080669
  H      3.476086   11.773358    0.122230
  C      3.070730    9.908012    1.160470
  N      1.450745    7.175121   -1.814962
  N      0.622139    4.663640   -0.970547
  N      2.388096    9.310874   -1.112708
  N      0.351398    5.526158   -3.231816
  C      1.858376    8.484498   -2.008653
  C      0.903995    6.712246   -3.000312
  C      0.208646    4.598731   -2.291321
  C      0.219105    3.499215   -0.336637
  C      1.584619    8.875924   -3.385107
  C      1.782759   10.078136   -4.073627
  H      2.215400   10.958064   -3.591448
  C      1.379182   10.126250   -5.408379
  C      0.822331    8.981485   -6.053533
  C      0.594947    7.796587   -5.353363
  H      0.153503    6.930820   -5.853027
  C      0.984047    7.759860   -4.009378
  C     -0.470694    3.330417   -2.524752
  C     -1.069547    2.785403   -3.666610
  H     -1.082958    3.315281   -4.621989
  C     -1.656094    1.523548   -3.549287
  C     -1.643891    0.829769   -2.300442
  C     -1.054524    1.377833   -1.163614
  H     -1.047897    0.849814   -0.203942
  C     -0.461744    2.641113   -1.292885
  O      1.561543   11.289408   -6.130983
  O      0.456576    9.066279   -7.384615
  O     -2.247387    0.943258   -4.633013
  O      0.524098    1.466313    6.127027
  O      1.625783    3.699191    7.367660
  O      3.425625    5.408669   -0.561990
  O     -2.262316   -0.402848   -2.343578
  O      4.359842   11.883565    4.581877
  O      4.349973   13.171875    2.290160
  H      0.881467    3.215060    7.771918
  H      1.207540    1.342662    6.812001
  H     -2.213160   -0.821066   -1.467846
  H     -2.592746    0.075313   -4.347532
  H      1.136216    9.585584   -7.853589
  H      0.813799   11.377801   -6.751482
  H      4.304140   13.535608    1.388759
  H      4.318527   11.302935    5.361665
